@<TRIPOS>MOLECULE
3G0H_ANP.pdb
 31 33 0 0 0
SMALL
GASTEIGER

@<TRIPOS>ATOM
      1  PA        -0.9470  -10.2960  -21.5510 P.3     1  ANP1        0.2220
      2  PB         1.5270  -11.6490  -21.4730 P.3     1  ANP1        0.4669
      3  PG         3.8440  -10.9280  -23.2880 P.3     1  ANP1        0.4884
      4  C5'       -2.8560  -11.8670  -22.4410 C.3     1  ANP1        0.1813
      5  O5'       -1.7190  -11.0700  -22.7220 O.3     1  ANP1       -0.3111
      6  C4'       -4.0810  -11.3480  -23.1650 C.3     1  ANP1        0.1801
      7  O4'       -5.1080  -12.2990  -22.9210 O.3     1  ANP1       -0.3306
      8  C3'       -4.5900  -10.0430  -22.5820 C.3     1  ANP1        0.2161
      9  O3'       -5.3130   -9.3050  -23.5730 O.3     1  ANP1       -0.2175
     10  C2'       -5.5060  -10.4620  -21.4520 C.3     1  ANP1        0.2337
     11  O2'       -6.6090   -9.5660  -21.2580 O.3     1  ANP1       -0.2155
     12  C1'       -6.0040  -11.8280  -21.8940 C.3     1  ANP1        0.2409
     13  N1        -8.9120  -15.7140  -20.0920 N.ar    1  ANP1       -0.2040
     14  O1A       -1.1290  -10.9810  -20.2200 O.co2   1  ANP1       -0.5170
     15  O1B        0.6650  -12.8600  -21.2860 O.2     1  ANP1       -0.2351
     16  O1G        3.7520   -9.7310  -22.3750 O.2     1  ANP1       -0.2331
     17  C2        -9.0630  -14.9500  -21.1900 C.ar    1  ANP1        0.2016
     18  O2A       -1.3230   -8.8470  -21.7360 O.3     1  ANP1       -0.4370
     19  O2B        2.3210  -11.1540  -20.3050 O.3     1  ANP1       -0.1253
     20  O2G        5.1150  -11.7440  -23.1510 O.3     1  ANP1       -0.1240
     21  N3        -8.2040  -13.9730  -21.5090 N.ar    1  ANP1       -0.2048
     22  N3B        2.6660  -12.0610  -22.7070 N.3     1  ANP1       -0.0163
     23  O3A        0.6020  -10.4440  -21.9830 O.3     1  ANP1       -0.2360
     24  O3G        3.4150  -10.7060  -24.7060 O.3     1  ANP1       -0.1240
     25  C4        -7.1300  -13.7020  -20.7200 C.ar    1  ANP1        0.1692
     26  C5        -6.9080  -14.4860  -19.4970 C.ar    1  ANP1        0.1518
     27  C6        -7.8900  -15.5470  -19.2100 C.ar    1  ANP1        0.1919
     28  N6        -7.7640  -16.3210  -18.1030 N.pl3   1  ANP1       -0.1054
     29  N7        -5.7960  -14.0110  -18.9170 N.ar    1  ANP1       -0.2193
     30  C8        -5.3340  -12.9970  -19.7050 C.ar    1  ANP1        0.1816
     31  N9        -6.1320  -12.8180  -20.7820 N.ar    1  ANP1       -0.2693
@<TRIPOS>UNITY_ATOM_ATTR
14 1
charge -1
@<TRIPOS>BOND
     1     1     5    1
     2     1    14    2
     3     1    18    1
     4     1    23    1
     5     2    15    2
     6     2    19    1
     7     2    22    1
     8     2    23    1
     9     3    16    2
    10     3    20    1
    11     3    22    1
    12     3    24    1
    13     4     6    1
    14     4     5    1
    15     6     7    1
    16     6     8    1
    17     7    12    1
    18     8     9    1
    19     8    10    1
    20    10    11    1
    21    10    12    1
    22    12    31    1
    23    13    17   ar
    24    13    27   ar
    25    17    21   ar
    26    21    25   ar
    27    25    26   ar
    28    25    31   ar
    29    26    27   ar
    30    26    29   ar
    31    27    28    1
    32    29    30   ar
    33    30    31   ar
